* CL31A107MQHNNN Multilayer Ceramic Capacitor Spice Model
*-----------------------------------------------------------------------------------------------
* Model Generated by Samsung Electro-Mechanics
* Samsung Spice Model Version 5.0
* Date : Dec-12-2025
* Products : Multilayer Ceramic Capacitor(General)
*-----------------------------------------------------------------------------------------------
* Characteristics :
*
*     Nominal Capacitance = 100uF
*     Capacitance Tolerance = +/-20%
*     TCC = X5R(-55 ~ +85 degC.)
*     Rated Voltage = 6.3Vdc
*     Size = 1206(unit:inch), 3216(unit:mm)
*     Length = 3.20+/-0.20mm
*     Width = 1.60+/-0.20mm
*     Thickness = 1.60+/-0.20mm
*     Reliability level = Standard
*     Lineup = Lineup Normal
*     Feature = Features Normal
*     Measurement Temperature : 25degC.
*     DC bias Value = 0V
*     Frequency : 100Hz ~ 6GHz
*-----------------------------------------------------------------------------------------------
* External Node Assignments :
*
*  1  o---||---o  2
*
*-----------------------------------------------------------------------------------------------
.SUBCKT CL31A107MQHNNN_Precise_DC0V_25degC 1 2
C1 1 3 7.37539E-5
C2 3 4 0.00204
C3 4 5 0.00281
C4 5 6 0.00228
C5 6 7 0.00259
C6 7 8 6.68918E-4
C7 8 9 1.0E-10
C8 9 10 1.0E-10
C16 17 18 0.00181
C17 18 19 9.05074E-5
C18 19 20 2.53303E-4
C19 20 21 2.53303E-4
C20 21 22 2.53303E-4
C21 22 23 2.53303E-4
C22 23 24 2.53303E-4
C23 24 25 4.94855E-4
C24 25 26 2.51817E-5
C25 26 27 2.53303E-4
C26 27 28 2.77166E-11
C27 28 2 8.30648E-12
L10 11 12 1.54635E-10 Rser=0.0
L11 12 13 4.77870E-10 Rser=0.0
L12 13 14 1.40941E-10 Rser=0.0
L13 14 15 1.05307E-10 Rser=0.0
L14 15 16 1.0E-10 Rser=0.0
L15 16 17 1.0E-10 Rser=0.0
L16 17 18 2.86329E-11 Rser=0.0
L17 18 19 2.14382E-10 Rser=0.0
L18 19 20 1.0E-10 Rser=0.0
L19 20 21 1.0E-10 Rser=0.0
L20 21 22 1.0E-10 Rser=0.0
L21 22 23 1.0E-10 Rser=0.0
L22 23 24 1.0E-10 Rser=0.0
L23 24 25 7.17071E-11 Rser=0.0
L24 25 26 2.91961E-10 Rser=0.0
L25 26 27 1.0E-10 Rser=0.0
L26 27 28 5.77813E-11 Rser=0.0
L27 28 2 6.44168E-11 Rser=0.0
R1 1 3 1.0E8
R2 3 4 0.78958
R3 4 5 0.09342
R4 5 6 0.01706
R5 6 7 0.00219
R6 7 8 7.80758E-4
R7 8 9 1.0E-6
R8 9 10 1.0E-6
R9 10 11 0.00103
R11 12 13 0.00840
R12 13 14 0.01891
R13 14 15 0.15381
R14 15 16 1.0E-6
R15 16 17 1.0E-6
R16 17 18 1.80042E-4
R17 18 19 0.00174
R18 19 20 1.0E-6
R19 20 21 1.0E-6
R20 21 22 1.0E-6
R21 22 23 1.0E-6
R22 23 24 1.0E-6
R23 24 25 0.00116
R24 25 26 0.00197
R25 26 27 1.0E-6
R26 27 28 2.98475
R27 28 2 5.40625
.ENDS CL31A107MQHNNN_Precise_DC0V_25degC